<?xml version="1.0" encoding="UTF-8"?>

<!-- generated on 2022-01-14 22:13:52 by Eclipse SUMO netedit Version 1.11.0
<configuration xmlns:xsi="http://www.w3.org/2001/XMLSchema-instance" xsi:noNamespaceSchemaLocation="http://sumo.dlr.de/xsd/netconvertConfiguration.xsd">

    <input>
        <sumo-net-file value="/home/wuth-3090/Code/mixed_traffic/sumoFiles/signal/TLS.net.xml"/>
    </input>

    <output>
        <output-file value="/home/wuth-3090/Code/mixed_traffic/sumoFiles/signal/TLS.net.xml"/>
    </output>

    <processing>
        <geometry.min-radius.fix.railways value="false"/>
        <geometry.max-grade.fix value="false"/>
        <offset.disable-normalization value="true"/>
        <lefthand value="false"/>
    </processing>

    <junctions>
        <no-turnarounds value="true"/>
        <junctions.corner-detail value="5"/>
        <junctions.limit-turn-speed value="5.5"/>
        <rectangular-lane-cut value="false"/>
    </junctions>

    <pedestrian>
        <walkingareas value="false"/>
    </pedestrian>

    <netedit>
        <TLSPrograms-output value="/home/wuth-3090/Code/mixed_traffic/sumoFiles/signal/TLS-timing.xml"/>
    </netedit>

    <report>
        <aggregate-warnings value="5"/>
    </report>

</configuration>
-->

<net version="1.9" junctionCornerDetail="5" limitTurnSpeed="5.50" xmlns:xsi="http://www.w3.org/2001/XMLSchema-instance"
     xsi:noNamespaceSchemaLocation="http://sumo.dlr.de/xsd/net_file.xsd">

    <location netOffset="0.00,0.00" convBoundary="-200.00,-200.00,200.00,200.00"
              origBoundary="-10000000000.00,-10000000000.00,10000000000.00,10000000000.00" projParameter="!"/>

    <edge id=":J_C_0" function="internal">
        <lane id=":J_C_0_0" index="0" speed="13.89" length="20.80" shape="-4.80,10.40 -4.80,-10.40"/>
    </edge>
    <edge id=":J_C_1" function="internal">
        <lane id=":J_C_1_0" index="0" speed="9.26" length="19.35"
              shape="-1.60,10.40 -0.85,5.15 1.40,1.40 5.15,-0.85 10.40,-1.60"/>
    </edge>
    <edge id=":J_C_2" function="internal">
        <lane id=":J_C_2_0" index="0" speed="13.89" length="20.80" shape="10.40,4.80 -10.40,4.80"/>
    </edge>
    <edge id=":J_C_3" function="internal">
        <lane id=":J_C_3_0" index="0" speed="9.26" length="19.35"
              shape="10.40,1.60 5.15,0.85 1.40,-1.40 -0.85,-5.15 -1.60,-10.40"/>
    </edge>
    <edge id=":J_C_4" function="internal">
        <lane id=":J_C_4_0" index="0" speed="13.89" length="20.80" shape="4.80,-10.40 4.80,10.40"/>
    </edge>
    <edge id=":J_C_5" function="internal">
        <lane id=":J_C_5_0" index="0" speed="9.26" length="19.35"
              shape="1.60,-10.40 0.85,-5.15 -1.40,-1.40 -5.15,0.85 -10.40,1.60"/>
    </edge>
    <edge id=":J_C_6" function="internal">
        <lane id=":J_C_6_0" index="0" speed="13.89" length="20.80" shape="-10.40,-4.80 10.40,-4.80"/>
    </edge>
    <edge id=":J_C_7" function="internal">
        <lane id=":J_C_7_0" index="0" speed="9.26" length="19.35"
              shape="-10.40,-1.60 -5.15,-0.85 -1.40,1.40 0.85,5.15 1.60,10.40"/>
    </edge>

    <edge id="-d" from="J_C" to="J_D" priority="-1">
        <lane id="-d_0" index="0" speed="13.89" length="189.60" shape="-4.80,-10.40 -4.80,-200.00"/>
        <lane id="-d_1" index="1" speed="13.89" length="189.60" shape="-1.60,-10.40 -1.60,-200.00"/>
    </edge>
    <edge id="-l" from="J_C" to="J_L" priority="-1">
        <lane id="-l_0" index="0" speed="13.89" length="189.60" shape="-10.40,4.80 -200.00,4.80"/>
        <lane id="-l_1" index="1" speed="13.89" length="189.60" shape="-10.40,1.60 -200.00,1.60"/>
    </edge>
    <edge id="-r" from="J_C" to="J_R" priority="-1">
        <lane id="-r_0" index="0" speed="13.89" length="189.60" shape="10.40,-4.80 200.00,-4.80"/>
        <lane id="-r_1" index="1" speed="13.89" length="189.60" shape="10.40,-1.60 200.00,-1.60"/>
    </edge>
    <edge id="-u" from="J_C" to="J_U" priority="-1">
        <lane id="-u_0" index="0" speed="13.89" length="189.60" shape="4.80,10.40 4.80,200.00"/>
        <lane id="-u_1" index="1" speed="13.89" length="189.60" shape="1.60,10.40 1.60,200.00"/>
    </edge>
    <edge id="d" from="J_D" to="J_C" priority="-1">
        <lane id="d_0" index="0" speed="13.89" length="189.60" shape="4.80,-200.00 4.80,-10.40"/>
        <lane id="d_1" index="1" speed="13.89" length="189.60" shape="1.60,-200.00 1.60,-10.40"/>
    </edge>
    <edge id="l" from="J_L" to="J_C" priority="-1">
        <lane id="l_0" index="0" speed="13.89" length="189.60" shape="-200.00,-4.80 -10.40,-4.80"/>
        <lane id="l_1" index="1" speed="13.89" length="189.60" shape="-200.00,-1.60 -10.40,-1.60"/>
    </edge>
    <edge id="r" from="J_R" to="J_C" priority="-1">
        <lane id="r_0" index="0" speed="13.89" length="189.60" shape="200.00,4.80 10.40,4.80"/>
        <lane id="r_1" index="1" speed="13.89" length="189.60" shape="200.00,1.60 10.40,1.60"/>
    </edge>
    <edge id="u" from="J_U" to="J_C" priority="-1">
        <lane id="u_0" index="0" speed="13.89" length="189.60" shape="-4.80,200.00 -4.80,10.40"/>
        <lane id="u_1" index="1" speed="13.89" length="189.60" shape="-1.60,200.00 -1.60,10.40"/>
    </edge>


    <tlLogic id="J_C" type="static" programID="0" offset="0">
        <phase duration="60" state="GgGgGgGg"/>
    </tlLogic>

    <junction id="J_C" type="traffic_light" x="0.00" y="0.00" incLanes="u_0 u_1 r_0 r_1 d_0 d_1 l_0 l_1"
              intLanes=":J_C_0_0 :J_C_1_0 :J_C_2_0 :J_C_3_0 :J_C_4_0 :J_C_5_0 :J_C_6_0 :J_C_7_0"
              shape="-6.40,10.40 6.40,10.40 6.84,8.18 7.40,7.40 8.18,6.84 9.18,6.51 10.40,6.40 10.40,-6.40 8.18,-6.84 7.40,-7.40 6.84,-8.18 6.51,-9.18 6.40,-10.40 -6.40,-10.40 -6.84,-8.18 -7.40,-7.40 -8.18,-6.84 -9.18,-6.51 -10.40,-6.40 -10.40,6.40 -8.18,6.84 -7.40,7.40 -6.84,8.18 -6.51,9.18">
        <request index="0" response="00000000" foes="11100100" cont="0"/>
        <request index="1" response="00010000" foes="10011100" cont="0"/>
        <request index="2" response="00010011" foes="10010011" cont="0"/>
        <request index="3" response="01110010" foes="01110010" cont="0"/>
        <request index="4" response="00000000" foes="01001110" cont="0"/>
        <request index="5" response="00000001" foes="11001001" cont="0"/>
        <request index="6" response="00110001" foes="00111001" cont="0"/>
        <request index="7" response="00100111" foes="00100111" cont="0"/>
    </junction>
    <junction id="J_D" type="dead_end" x="0.00" y="-200.00" incLanes="-d_0 -d_1" intLanes=""
              shape="0.00,-200.00 -6.40,-200.00 0.00,-200.00"/>
    <junction id="J_L" type="dead_end" x="-200.00" y="0.00" incLanes="-l_0 -l_1" intLanes=""
              shape="-200.00,0.00 -200.00,6.40 -200.00,0.00"/>
    <junction id="J_R" type="dead_end" x="200.00" y="0.00" incLanes="-r_0 -r_1" intLanes=""
              shape="200.00,0.00 200.00,-6.40 200.00,0.00"/>
    <junction id="J_U" type="dead_end" x="0.00" y="200.00" incLanes="-u_0 -u_1" intLanes=""
              shape="0.00,200.00 6.40,200.00 0.00,200.00"/>

    <connection from="d" to="-u" fromLane="0" toLane="0" via=":J_C_4_0" tl="J_C" linkIndex="4" dir="s" state="O"/>
    <connection from="d" to="-l" fromLane="1" toLane="1" via=":J_C_5_0" tl="J_C" linkIndex="5" dir="l" state="o"/>
    <connection from="l" to="-r" fromLane="0" toLane="0" via=":J_C_6_0" tl="J_C" linkIndex="6" dir="s" state="o"/>
    <connection from="l" to="-u" fromLane="1" toLane="1" via=":J_C_7_0" tl="J_C" linkIndex="7" dir="l" state="o"/>
    <connection from="r" to="-l" fromLane="0" toLane="0" via=":J_C_2_0" tl="J_C" linkIndex="2" dir="s" state="o"/>
    <connection from="r" to="-d" fromLane="1" toLane="1" via=":J_C_3_0" tl="J_C" linkIndex="3" dir="l" state="o"/>
    <connection from="u" to="-d" fromLane="0" toLane="0" via=":J_C_0_0" tl="J_C" linkIndex="0" dir="s" state="O"/>
    <connection from="u" to="-r" fromLane="1" toLane="1" via=":J_C_1_0" tl="J_C" linkIndex="1" dir="l" state="o"/>

    <connection from=":J_C_0" to="-d" fromLane="0" toLane="0" dir="s" state="M"/>
    <connection from=":J_C_1" to="-r" fromLane="0" toLane="1" dir="l" state="M"/>
    <connection from=":J_C_2" to="-l" fromLane="0" toLane="0" dir="s" state="M"/>
    <connection from=":J_C_3" to="-d" fromLane="0" toLane="1" dir="l" state="M"/>
    <connection from=":J_C_4" to="-u" fromLane="0" toLane="0" dir="s" state="M"/>
    <connection from=":J_C_5" to="-l" fromLane="0" toLane="1" dir="l" state="M"/>
    <connection from=":J_C_6" to="-r" fromLane="0" toLane="0" dir="s" state="M"/>
    <connection from=":J_C_7" to="-u" fromLane="0" toLane="1" dir="l" state="M"/>

</net>
