<?xml version='1.0' encoding='utf-8'?>
<routes xmlns:xsi="http://www.w3.org/2001/XMLSchema-instance" xsi:noNamespaceSchemaLocation="http://sumo.dlr.de/xsd/routes_file.xsd">
<!--    D - Down   U - Up  L - left    R - Right -->
    <flow id="DToU" begin="0.00" departLane="0" arrivalLane="0" color="blue" from="d" to="-u" end="10800" probability="0.1" />
    <flow id="DToL" begin="0.00" departLane="1" arrivalLane="1" color="blue" from="d" to="-l" end="10800" probability="0.1" />
    <flow id="LToR" begin="0.00" departLane="0" arrivalLane="0" color="blue" from="l" to="-r" end="10800" probability="0.1" />
    <flow id="LToU" begin="0.00" departLane="1" arrivalLane="1" color="blue" from="l" to="-u" end="10800" probability="0.1" />
    <flow id="RToL" begin="0.00" departLane="0" arrivalLane="0" color="blue" from="r" to="-l" end="10800" probability="0.1" />
    <flow id="RToD" begin="0.00" departLane="1" arrivalLane="1" color="blue" from="r" to="-d" end="10800" probability="0.1" />
    <flow id="UToD" begin="0.00" departLane="0" arrivalLane="0" color="blue" from="u" to="-d" end="10800" probability="0.1" />
    <flow id="UToR" begin="0.00" departLane="1" arrivalLane="1" color="blue" from="u" to="-r" end="10800" probability="0.1" />

</routes>